Circuit: * C:\Campus\My ACA\Semester 3\Laboratory Practice - II\EN2090_Project_LPS\Simulations\LTSpice\LPS_with_current_limitter\with_current_limitter.asc

.OP point found by inspection.

Date: Thu Mar 17 08:10:08 2022
Total elapsed time: 0.087 seconds.

tnom = 27
temp = 27
method = modified trap
totiter = 2276
traniter = 2276
tranpoints = 1115
accept = 1101
rejected = 14
matrix size = 27
fillins = 34
solver = Normal
Matrix Compiler1:     251 opcodes  0.5/0.3/[0.2]
Matrix Compiler2: 3.08 KB object code size  0.3/0.3/[0.1]

