Circuit: * C:\Campus\My ACA\Semester 3\Laboratory Practice - II\EN2090_Project_LPS\Simulations\LTSpice\LPS_with_current_limitter\with_current_limitter.asc

.OP point found by inspection.

Date: Mon Mar 28 08:50:02 2022
Total elapsed time: 0.063 seconds.

tnom = 27
temp = 27
method = modified trap
totiter = 2673
traniter = 2673
tranpoints = 1161
accept = 1140
rejected = 21
matrix size = 26
fillins = 30
solver = Normal
Matrix Compiler1:     238 opcodes  0.5/0.3/[0.2]
Matrix Compiler2: 2.94 KB object code size  0.2/0.2/[0.1]

