Circuit: * C:\Campus\My ACA\Semester 3\Laboratory Practice - II\EN2090_Project_LPS\Simulations\LTSpice\LPS_with_current_limitter\with_current_limitter.asc

.OP point found by inspection.

Date: Thu Mar 24 11:09:12 2022
Total elapsed time: 0.094 seconds.

tnom = 27
temp = 27
method = modified trap
totiter = 2290
traniter = 2290
tranpoints = 1121
accept = 1104
rejected = 17
matrix size = 26
fillins = 30
solver = Normal
Matrix Compiler1:     238 opcodes  0.5/0.3/[0.2]
Matrix Compiler2: 2.94 KB object code size  0.3/0.2/[0.1]

