Circuit: * C:\Campus\My ACA\Semester 3\Laboratory Practice - II\EN2090_Project_LPS\Simulations\LTSpice\LPS_with_current_limitter\with_current_limitter.asc

.OP point found by inspection.

Date: Thu Mar 17 07:13:10 2022
Total elapsed time: 0.083 seconds.

tnom = 27
temp = 27
method = modified trap
totiter = 2269
traniter = 2269
tranpoints = 1113
accept = 1100
rejected = 13
matrix size = 27
fillins = 34
solver = Normal
Matrix Compiler1:     251 opcodes  0.5/0.4/[0.2]
Matrix Compiler2: 3.08 KB object code size  0.3/0.3/[0.2]

