Circuit: * C:\Campus\My ACA\Semester 3\Laboratory Practice - II\Lab Project\Simulations\LTSpice\Basic Sketch 1.asc

.OP point found by inspection.

Date: Wed Mar 16 08:44:55 2022
Total elapsed time: 0.141 seconds.

tnom = 27
temp = 27
method = modified trap
totiter = 2278
traniter = 2278
tranpoints = 1115
accept = 1101
rejected = 14
matrix size = 26
fillins = 30
solver = Normal
Matrix Compiler1:     238 opcodes  0.5/0.3/[0.2]
Matrix Compiler2: 2.94 KB object code size  0.2/0.3/[0.1]

