Circuit: * C:\Campus\My ACA\Semester 3\Laboratory Practice - II\Lab Project\Simulations\LTSpice\Main\Draft1.asc

WARNING: Node N005 is floating.

.OP point found by inspection.

Date: Thu Feb 03 23:20:36 2022
Total elapsed time: 1.641 seconds.

tnom = 27
temp = 27
method = modified trap
totiter = 1218258
traniter = 1218258
tranpoints = 255644
accept = 191747
rejected = 63897
matrix size = 8
fillins = 0
solver = Normal
Matrix Compiler1: 592 bytes object code size  0.1/0.1/[0.1]
Matrix Compiler2: 676 bytes object code size  0.1/0.1/[0.0]

